/*--------------------------------*- C++ -*----------------------------------*\
| =========                 |                                                 |
| \\      /  F ield         | OpenFOAM: The Open Source CFD Toolbox           |
|  \\    /   O peration     | Version:  2212                                  |
|   \\  /    A nd           | Website:  www.openfoam.com                      |
|    \\/     M anipulation  |                                                 |
\*---------------------------------------------------------------------------*/
FoamFile
{
    version     2.0;
    format      ascii;
    arch        "LSB;label=32;scalar=64";
    class       triSurfacePointScalarField;
    location    "constant/triSurface";
    object      cylinder.curvature;
}
// * * * * * * * * * * * * * * * * * * * * * * * * * * * * * * * * * * * * * //

dimensions      [0 1 0 0 0 0 0];

value           nonuniform List<scalar> 
756
(
1.80205
1.95438
1.55893
1.39749
1.2889
1.47464
0
0
0
0
0
0
1.8483
1.7297
1.60183
1.74689
1.53449
1.80292
1.70348
2.26496
1.41616
1.4158
0.59632
1.5117
1.54878
0.977973
1.77965
1.3165
0
0
1.88974
1.37617
1.48344
1.6621
1.64549
1.63685
1.55631
2.16182
1.65256
1.38849
0.615241
1.51328
1.39318
0.997322
1.00349
1.37012
0
0
0
1.27864
1.64795
0
0
0
0
0
0
1.20269
0
0
0
0
0
0
0
1.25235
0
0
0
0
0
0
0
0
0
1.05968
1.70923
1.4285
1.36494
1.52094
0
0
0
0
0
0
0
0
0
0
0
0
0
0
0
0
1.34543
1.3405
1.39625
1.32661
1.34043
1.3728
1.39005
1.4045
1.34643
1.32149
1.3794
1.40312
1.41799
1.36748
1.37001
1.38127
1.39153
1.40344
1.34619
1.32253
1.38308
1.40712
1.42002
1.36252
1.35328
0.815426
0.973311
1.38097
1.4023
0.968882
0.969021
0.968922
0.969129
0.968948
0.969265
0.968961
0.969374
0.968962
0.969449
0.96895
0.969485
0.968933
0.969494
0.968919
0.969486
0.968908
0.969469
0.968902
0.969457
0.9689
0.969451
0.968899
0.969451
0.968899
0.969459
0.968905
0.969478
0.968923
0.969491
0.968947
0.969469
0.968956
0.969399
0.968945
0.969292
0.96892
0.969173
0.968891
0.969073
0.968874
0.968989
1.30032
1.37645
1.44141
1.37861
1.48769
1.36826
1.51554
1.36019
1.5025
1.34939
1.48881
1.34075
1.5054
1.33544
1.56482
1.33
1.65583
1.3254
1.72054
1.32111
1.75106
1.31503
1.76309
1.30849
1.77489
1.30241
1.87745
1.29396
2.14302
1.291
2.40598
1.31351
2.25623
1.35047
1.99389
1.35925
1.82073
1.34941
1.73336
1.33012
1.61539
1.32505
1.43724
1.34665
1.27616
1.38075
0.968755
0.968695
0.968629
0.968564
0.968507
0.968462
0.968432
0.968415
0.968406
0.968402
0.968401
0.9684
0.9684
0.9684
0.968402
0.968417
0.968456
0.968518
0.968591
0.968662
0.968723
0.96883
0.96883
0.96883
0.96883
0.96883
0.96883
0.96883
0.96883
0.96883
0.96883
0.96883
0.96883
0.968832
0.968843
0.96886
0.968852
0.9688
0.968741
0.96873
0.968769
0.968829
0.968896
0.968869
0.968897
0.968969
0.969066
0.969159
0.96919
0.969178
0.969149
0.96913
0.969123
0.969126
0.969133
0.969131
0.969103
0.96906
0.969017
0.96898
0.968963
0.968946
0.96883
0.96883
0.96883
0.96883
0.96883
0.96883
0.96883
0.96883
0.96883
0.96883
0.96883
0.96883
0.96883
0.968834
0.968839
0.96882
0.968791
0.968796
0.968839
0.968897
0.968933
0.968882
0.96883
0.96883
0.96883
0.96883
0.96883
0.96883
0.96883
0.96883
0.96883
0.96883
0.96883
0.96883
0.96883
0.96883
0.96883
0.96883
0.96883
0.96883
0.96883
0.96883
0.96883
0.96883
0.96883
0.96883
0.96883
0.96883
0.96883
0.96883
0.96883
0.968832
0.968847
0.968867
0.968862
0.968806
0.968728
0.968687
0.968716
0.968789
0.968886
0.968946
0.969042
0.968801
0.968883
0.96915
0.969242
0.969269
0.969251
0.969231
0.969204
0.969164
0.969119
0.969062
0.969001
0.96895
0.968936
0.968932
0.96883
0.968831
0.96887
0.96883
0.96883
0.96883
0.96883
0.96883
0.96883
0.96883
0.96883
0.96883
0.968834
0.968844
0.968833
0.968794
0.968769
0.968796
0.968864
0.968873
0.96883
0.96883
0.96883
0.96883
0.96883
0.96883
0.96883
0.96883
0.96883
0.96883
0.96883
0.96883
0.96883
0.96883
0.96883
0.96883
0.96883
0.96883
0.96883
0.96883
0.96883
0.96883
0.96883
0.96883
0.96883
0.968832
0.96885
0.968877
0.968871
0.968807
0.968713
0.96865
0.968666
0.968746
0.968865
0.968811
0.968776
0.96913
0.969266
0.968832
0.969002
0.969353
0.969326
0.969228
0.969161
0.969093
0.969017
0.968959
0.968942
0.96893
0.96883
0.96883
0.96883
0.968742
0.96883
0.96883
0.96883
0.96883
0.968831
0.968843
0.968848
0.968811
0.968761
0.968748
0.968823
0.968891
0.96883
0.96883
0.96883
0.96883
0.96883
0.96883
0.968829
0.96883
0.968835
0.968836
0.968834
0.968832
0.968831
0.96883
0.96883
0.96883
0.968831
0.96883
0.96883
0.96883
0.96883
0.96883
0.968832
0.968835
0.968852
0.968887
0.968887
0.968807
0.968689
0.968606
0.968606
0.968698
0.968859
0.968661
0.968729
0.968921
0.969368
0.968679
0.96883
0.96883
0.969667
0.969322
0.969169
0.969064
0.969012
0.968998
0.968961
0.968837
0.968832
0.968832
0.96883
0.96883
0.968827
0.968821
0.968846
0.968821
0.96879
0.968753
0.96877
0.968802
0.968797
0.969561
0.96883
0.968829
0.968826
0.96882
0.96882
0.968852
0.968883
0.968877
0.968856
0.96884
0.968832
0.968829
0.96883
0.96883
0.968831
0.968832
0.968838
0.968856
0.96887
0.968878
0.968864
0.968796
0.968672
0.968561
0.968546
0.968627
0.968844
0.969042
0.969504
0.968591
0.968895
0.968945
0.968899
0.968884
0.968828
0.96883
0.970123
0.969636
0.969069
0.968951
0.968755
0.968752
0.968849
0.968668
0.96883
0.970185
0.968521
0.968753
0.968616
0.968792
0.968887
0.968758
0.968819
0.968793
0.968778
0.968834
0.968965
0.969064
0.969015
0.968913
0.968848
0.968826
0.96883
0.96883
0.968848
0.9689
0.968976
0.968918
0.968686
0.968501
0.968533
0.968577
0.96857
0.968589
0.968799
0.968394
0.968441
0.968791
0.968888
0.970549
0.968915
0.968512
0.96875
0.968641
0.969302
0.971347
0.968438
0.96881
0.968515
0.968548
0.968229
0.968793
0.969026
0.967806
0.969192
0.969177
0.968734
0.968677
0.968876
0.969254
0.969577
0.969369
0.969015
0.968796
0.968831
0.968884
0.969122
0.96928
0.968736
0.967578
0.967223
0.968186
0.969035
0.968987
0.968877
0.968735
0.968817
0.966882
0.968277
0.969876
0.965728
0.969159
0.967631
0.973034
0.967443
0.966838
0.968524
0.967966
0.970179
0.968889
0.971747
0.968419
0.968455
0.968407
0.96973
0.970771
0.969888
0.968855
0.96895
0.969291
0.970032
0.968046
0.964246
0.963954
0.968903
0.971322
0.970255
0.967917
0.969438
0.968539
0.970963
0.960657
0.972836
0.970069
0.953033
0.956746
0.965666
0.965645
0.969311
0.967246
0.968764
0.97286
0.968881
0.969178
0.966253
0.971135
0.968616
0.956011
0.957505
0.975426
0.977748
0.947746
0.957819
1.01751
0.970944
0.979886
0.975921
0.967538
0.967211
0.962205
0.962474
0.972241
0.994511
0.967734
0.94406
0.944559
0.992496
1.01371
0.959224
0.947254
0.991114
0.97564
0.993019
0.97336
0.935141
1.82498
1.59163
1.21952
1.1733
1.13575
1.10262
1.08148
1.09654
1.11573
1.1589
1.22468
1.28155
1.33964
1.40413
1.476
1.54636
1.63881
1.69266
1.68744
1.66595
1.68219
1.78041
1.81612
1.84662
1.63281
0
0
0
0
0
0
0
0
0
0
0
0
0
0
0
0
0
0
0
0
0
0
0
0
0
0
0
0
0
0
0
0
0
0
0
)
;


// ************************************************************************* //
