/*--------------------------------*- C++ -*----------------------------------*\
| =========                 |                                                 |
| \\      /  F ield         | OpenFOAM: The Open Source CFD Toolbox           |
|  \\    /   O peration     | Version:  v2212                                 |
|   \\  /    A nd           | Website:  www.openfoam.com                      |
|    \\/     M anipulation  |                                                 |
\*---------------------------------------------------------------------------*/
FoamFile
{
    version     2.0;
    format      ascii;
    class       volScalarField;
    object      nuTilda;
}
// * * * * * * * * * * * * * * * * * * * * * * * * * * * * * * * * * * * * * //

dimensions      [0 2 -1 0 0 0 0];

internalField   uniform 0;

boundaryField
{
    "(movingWall|fixedWalls)"
    {
        type            zeroGradient;
    }

    inlet
    {
        type            freestream;
        freestreamValue $internalField;
    }
    outlet
    {
        type            freestream;
        freestreamValue $internalField;
    }
    "top|bottom"
    {
        type            freestream;
        freestreamValue $internalField;
    }
    "wall.*"
    {
        type            zeroGradient;
        value           uniform 0;
    }
    "front|back"
    {
        type            empty;
    }
}


// ************************************************************************* //
