/*--------------------------------*- C++ -*----------------------------------*\
| =========                 |                                                 |
| \\      /  F ield         | OpenFOAM: The Open Source CFD Toolbox           |
|  \\    /   O peration     | Version:  v2212                                 |
|   \\  /    A nd           | Website:  www.openfoam.com                      |
|    \\/     M anipulation  |                                                 |
\*---------------------------------------------------------------------------*/
FoamFile
{
    version     2.0;
    format      ascii;
    class       volScalarField;
    object      epsilon;
}
// * * * * * * * * * * * * * * * * * * * * * * * * * * * * * * * * * * * * * //

dimensions      [0 2 -3 0 0 0 0];

internalField   uniform 5.6;

boundaryField
{
    inlet1
    {
        type            fixedValue;
        value           $internalField;
    }

    inlet2
    {
        type            fixedValue;
        value           $internalField;
    }
	
	outlet
    {
        type            zeroGradient;
    }
	
    walls
    {
        type            epsilonWallFunction;
        value           $internalField;
    }

    symmetry
    {
        type            symmetry;
    }

}


// ************************************************************************* //
