/*--------------------------------*- C++ -*----------------------------------*\
| =========                 |                                                 |
| \\      /  F ield         | OpenFOAM: The Open Source CFD Toolbox           |
|  \\    /   O peration     | Version:  v2212                                 |
|   \\  /    A nd           | Website:  www.openfoam.com                      |
|    \\/     M anipulation  |                                                 |
\*---------------------------------------------------------------------------*/
FoamFile
{
    version     2.0;
    format      ascii;
    class       volScalarField;
    object      omega;
}
// * * * * * * * * * * * * * * * * * * * * * * * * * * * * * * * * * * * * * //

dimensions      [0 0 -1 0 0 0 0];

internalField   uniform 440.15;

boundaryField
{
    inlet1
    {
        type            fixedValue;
        value           uniform 440.15;
    }
	
	inlet2
    {
        type            fixedValue;
        value           uniform 440.15;
    }

    outlet
    {
        type            zeroGradient;
    }

    walls
    {
        type            omegaWallFunction;
        value           uniform 440.15;
    }

    symmetry
    {
        type            symmetry;
    }
	
}


// ************************************************************************* //
